Circuit: * C:\Users\Marko\PycharmProjects\zavrsni\ltspice_data.asc

WARNING: Node N003 is floating.

Direct Newton iteration for .op point succeeded.

Date: Fri Jun 17 12:59:33 2022
Total elapsed time: 0.243 seconds.

tnom = 27
temp = 27
method = modified trap
totiter = 2105
traniter = 2102
tranpoints = 1052
accept = 1052
rejected = 0
matrix size = 5
fillins = 0
solver = Normal
Matrix Compiler1:       9 opcodes  0.2/[0.1]/0.1
Matrix Compiler2: 321 bytes object code size  0.2/0.1/[0.1]

