Circuit: * C:\Users\Marko\PycharmProjects\zavrsni\ltspice_final.asc

Direct Newton iteration for .op point succeeded.

Date: Wed Jul 13 15:17:12 2022
Total elapsed time: 0.139 seconds.

tnom = 27
temp = 27
method = modified trap
totiter = 2101
traniter = 2098
tranpoints = 1050
accept = 1050
rejected = 0
matrix size = 3
fillins = 0
solver = Normal
Matrix Compiler1: 86 bytes object code size  0.1/0.1/[0.0]
Matrix Compiler2: 163 bytes object code size  0.1/0.1/[0.1]

